soils.sol: written by SWAT+ editor v2.0.4 on 2023-05-25 07:53
name                            nly           hyd_grp        dp_tot    anion_excl      perc_crk  texture                              dp            bd           awc        soil_k        carbon          clay          silt          sand          rock           alb        usle_k            ec         caco3            ph  
Ao                                2                 C    1000.00000       0.50000       0.50000  SCL                        
                                                                                                                               300.00000       1.60166       0.11121       7.11284       1.00000      24.00000      27.00000      49.00000       0.00000       1.06000       0.17000       1.00000       0.00000       0.00000  
                                                                                                                              1000.00000       1.52037       0.12163       1.81921       0.42000      36.00000      24.00000      40.00000       0.00000       0.17000       0.17000       0.00000       0.00000       0.00000  
Gd                                2                 D    1000.00000       0.50000       0.50000  C                          
                                                                                                                               300.00000       1.27776       0.12721       0.75002       1.65000      55.00000      29.00000      16.00000       0.00000       1.06000       0.17000       1.00000       0.00000       0.00000  
                                                                                                                              1000.00000       1.25936       0.12370       0.53847       0.77000      58.00000      24.00000      18.00000       0.00000       0.17000       0.17000       0.00000       0.00000       0.00000  
